Circuit: * C:\Users\First\Documents\GitHub\KELU1-0234_PSU\hw\KELU1-0234PSU_0.1\LT1244_PSU.asc

Warning: Multiple definitions of model "1n4007" Type: Diode
Direct Newton iteration failed to find .op point.  (Use ".option noopiter" to skip.)
Starting Gmin stepping
Gmin = 10
Gmin = 1.07374
Gmin = 0.115292
Gmin = 0.0123794
Gmin = 0.00132923
Gmin = 0.000142725
Gmin = 1.5325e-005
Gmin = 1.6455e-006
Gmin = 1.76685e-007
Gmin = 1.89714e-008
Gmin = 2.03704e-009
Gmin = 2.18725e-010
Gmin = 2.34854e-011
Gmin = 2.52173e-012
Gmin = 2.70769e-013
Gmin = 0
Gmin stepping succeeded in finding the operating point.

Heightened Def Con from 0.000239042 to 0.000239043
Heightened Def Con from 0.000288695 to 0.0002887
Heightened Def Con from 0.000322058 to 0.000322059
Heightened Def Con from 0.000406689 to 0.00040669
Heightened Def Con from 0.000445957 to 0.000445959
Heightened Def Con from 0.000552558 to 0.000552559
Heightened Def Con from 0.000571767 to 0.000571769
Heightened Def Con from 0.000592735 to 0.000592737
Heightened Def Con from 0.000624189 to 0.000624191
Heightened Def Con from 0.000708064 to 0.000708066
Heightened Def Con from 0.000896794 to 0.000896796
Heightened Def Con from 0.000980666 to 0.000980668
Heightened Def Con from 0.00110648 to 0.00110648
Heightened Def Con from 0.00122182 to 0.00122182
Heightened Def Con from 0.00126378 to 0.00126378
Heightened Def Con from 0.001279 to 0.001279
Heightened Def Con from 0.00130572 to 0.00130572
Heightened Def Con from 0.00133718 to 0.00133719
Heightened Def Con from 0.00134767 to 0.00134767
Heightened Def Con from 0.00149454 to 0.00149455
Heightened Def Con from 0.00166238 to 0.00166238
Heightened Def Con from 0.00169384 to 0.00169384
Heightened Def Con from 0.00179874 to 0.00179874
Heightened Def Con from 0.0018302 to 0.00183021
Heightened Def Con from 0.00186167 to 0.00186167
Heightened Def Con from 0.00193985 to 0.00193986
Heightened Def Con from 0.00197707 to 0.00197708
Heightened Def Con from 0.00214962 to 0.00214962
Heightened Def Con from 0.00215538 to 0.00215538
Heightened Def Con from 0.00219158 to 0.00219158
Heightened Def Con from 0.00223928 to 0.00223929
Heightened Def Con from 0.00226501 to 0.00226502
Heightened Def Con from 0.00239663 to 0.00239663
Heightened Def Con from 0.00244332 to 0.00244332
Heightened Def Con from 0.00248054 to 0.00248054
Heightened Def Con from 0.00248528 to 0.00248528
Heightened Def Con from 0.00249576 to 0.00249576
Heightened Def Con from 0.00252249 to 0.00252249
Heightened Def Con from 0.00259015 to 0.00259015
Heightened Def Con from 0.00260638 to 0.00260638
Heightened Def Con from 0.00266356 to 0.00266356
Heightened Def Con from 0.0027847 to 0.00278471
Heightened Def Con from 0.00279993 to 0.00279993
Heightened Def Con from 0.00289436 to 0.00289436
Heightened Def Con from 0.00324048 to 0.00324048
Heightened Def Con from 0.00346073 to 0.00346073
Heightened Def Con from 0.00356562 to 0.00356562
Heightened Def Con from 0.00358187 to 0.00358187
Heightened Def Con from 0.0036076 to 0.0036076
Heightened Def Con from 0.00372296 to 0.00372296
Heightened Def Con from 0.00411675 to 0.00411675
Heightened Def Con from 0.0042998 to 0.0042998
Heightened Def Con from 0.00557469 to 0.00557469
Heightened Def Con from 0.00572151 to 0.00572151
Heightened Def Con from 0.00575297 to 0.00575297
Heightened Def Con from 0.00575297 to 0.00575297
Heightened Def Con from 0.00602563 to 0.00602563
Heightened Def Con from 0.00615152 to 0.00615152
Heightened Def Con from 0.00804036 to 0.00804036
Heightened Def Con from 0.0449282 to 0.0449282
Heightened Def Con from 0.0558564 to 0.0558564
Heightened Def Con from 0.0709158 to 0.0709158
Heightened Def Con from 0.0747007 to 0.0747007
Heightened Def Con from 0.0850732 to 0.0850732
Heightened Def Con from 0.104798 to 0.104798
Heightened Def Con from 0.114751 to 0.114751
Heightened Def Con from 0.114887 to 0.114887
Heightened Def Con from 0.121525 to 0.121525
Heightened Def Con from 0.122196 to 0.122196
Heightened Def Con from 0.127399 to 0.127399
Heightened Def Con from 0.13477 to 0.13477
Heightened Def Con from 0.134781 to 0.134781
Heightened Def Con from 0.134886 to 0.134886
Heightened Def Con from 0.13906 to 0.13906
Heightened Def Con from 0.144607 to 0.144607
Heightened Def Con from 0.144691 to 0.144691
Heightened Def Con from 0.14489 to 0.14489
Heightened Def Con from 0.157969 to 0.157969
Heightened Def Con from 0.181974 to 0.181974
Heightened Def Con from 0.186105 to 0.186105
Heightened Def Con from 0.186871 to 0.186871
Heightened Def Con from 0.191422 to 0.191422
Heightened Def Con from 0.210718 to 0.210718
Heightened Def Con from 0.21247 to 0.21247
Heightened Def Con from 0.213361 to 0.213361
Heightened Def Con from 0.215563 to 0.215563
Heightened Def Con from 0.225316 to 0.225316
Heightened Def Con from 0.237953 to 0.237953
Heightened Def Con from 0.241016 to 0.241016
Heightened Def Con from 0.244078 to 0.244078
Heightened Def Con from 0.274625 to 0.274625
Heightened Def Con from 0.275958 to 0.275958
Heightened Def Con from 0.280006 to 0.280006
Heightened Def Con from 0.283697 to 0.283697
Heightened Def Con from 0.283876 to 0.283876
Heightened Def Con from 0.289287 to 0.289287
Heightened Def Con from 0.290252 to 0.290252
Heightened Def Con from 0.301861 to 0.301861
Heightened Def Con from 0.311614 to 0.311614
Heightened Def Con from 0.315452 to 0.315452
Heightened Def Con from 0.329945 to 0.329945
Heightened Def Con from 0.331917 to 0.331917
Heightened Def Con from 0.332588 to 0.332588
Heightened Def Con from 0.334129 to 0.334129
Heightened Def Con from 0.341586 to 0.341586
Heightened Def Con from 0.344899 to 0.344899
Heightened Def Con from 0.345864 to 0.345864
Heightened Def Con from 0.350311 to 0.350311
Heightened Def Con from 0.355135 to 0.355135
Heightened Def Con from 0.360976 to 0.360976
Heightened Def Con from 0.362497 to 0.362497
Heightened Def Con from 0.362518 to 0.362518
Heightened Def Con from 0.372984 to 0.372984
Heightened Def Con from 0.373581 to 0.373581
Heightened Def Con from 0.374629 to 0.374629
Heightened Def Con from 0.386344 to 0.386344
Heightened Def Con from 0.394167 to 0.394167
Heightened Def Con from 0.434877 to 0.434877
Heightened Def Con from 0.444577 to 0.444577
Heightened Def Con from 0.445942 to 0.445942
Heightened Def Con from 0.462008 to 0.462008
Heightened Def Con from 0.467545 to 0.467545
Heightened Def Con from 0.472253 to 0.472253
Heightened Def Con from 0.480958 to 0.480958
Heightened Def Con from 0.494642 to 0.494642
Heightened Def Con from 0.504909 to 0.504909
Heightened Def Con from 0.515806 to 0.515806
Heightened Def Con from 0.516718 to 0.516718
Heightened Def Con from 0.538531 to 0.538531
Heightened Def Con from 0.573652 to 0.573652
Heightened Def Con from 0.574816 to 0.574816
Heightened Def Con from 0.576484 to 0.576484
Heightened Def Con from 0.577679 to 0.577679
Heightened Def Con from 0.57769 to 0.57769
Heightened Def Con from 0.578046 to 0.578046
Heightened Def Con from 0.586342 to 0.586342
Heightened Def Con from 0.595623 to 0.595623
Heightened Def Con from 0.601747 to 0.601747
Heightened Def Con from 0.615621 to 0.615621
Heightened Def Con from 0.625364 to 0.625364
Heightened Def Con from 0.626003 to 0.626003
Heightened Def Con from 0.634581 to 0.634581
Heightened Def Con from 0.634707 to 0.634707
Heightened Def Con from 0.644156 to 0.644156
Heightened Def Con from 0.654873 to 0.654873
Heightened Def Con from 0.662865 to 0.662865
Heightened Def Con from 0.66471 to 0.66471
Heightened Def Con from 0.676362 to 0.676362
Heightened Def Con from 0.698731 to 0.698731
Heightened Def Con from 0.709627 to 0.709627
